ipss.test.plugin.core/testData/adpter/psse/v30/IEEE300/IEEE300Bus_modified_noHVDC.raw
0,    100.00, 30 / PSS(tm)E-30 RAW created by rawd30  SUN, OCT 07 2012  11:29
 00/00/01                      100.0  0    0
 0                               
    1,'1           ', 115.0000,1,     0.000,     0.000,   1,   1,1.0269806,   7.01762,   1
    2,'2           ', 115.0000,1,     0.000,     0.000,   1,   1,1.0340309,   8.77500,   1
    3,'3           ', 230.0000,1,     0.000,     0.000,   1,   1,0.9937571,   7.71736,   1
    4,'4           ', 345.0000,1,     0.000,     0.000,   1,   1,1.0273578,   5.70731,   1
    5,'5           ', 115.0000,1,     0.000,     0.000,   1,   1,1.0174733,   5.74875,   1
    6,'6           ', 115.0000,1,     0.000,     0.000,   1,   1,1.0295295,   8.03682,   1
    7,'7           ', 230.0000,1,     0.000,     0.000,   1,   1,0.9902502,   7.27847,   1
    8,'8           ', 115.0000,1,     0.000,     0.000,   1,   1,1.0137209,   3.36535,   1
    9,'9           ', 115.0000,1,     0.000,     0.000,   1,   1,1.0021147,   3.88980,   1
   10,'10          ', 230.0000,1,     0.000,     0.000,   1,   1,1.0186672,   2.38011,   1
   11,'11          ', 115.0000,1,     0.000,     0.000,   1,   1,1.0047603,   3.47715,   1
   12,'12          ', 230.0000,1,     0.000,     0.000,   1,   1,0.9951302,   6.27654,   1
   13,'13          ', 115.0000,1,     0.000,     0.000,   1,   1,0.9963589,   0.45775,   1
   14,'14          ', 115.0000,1,     0.000,     0.000,   1,   1,0.9969203,  -3.99284,   1
   15,'15          ', 115.0000,1,     0.000,     0.000,   1,   1,1.0320077,  -7.89855,   1
   16,'16          ', 345.0000,1,     0.000,     0.000,   1,   1,1.0284703,  -1.95162,   1
   17,'17          ', 115.0000,1,     0.000,     0.000,   1,   1,1.0628262, -12.45176,   1
   19,'19          ', 230.0000,1,     0.000,     0.000,   1,   1,0.9797736,   2.06911,   1
   20,'20          ', 115.0000,1,     0.000,     0.000,   1,   1,0.9992795,  -1.45363,   1
   21,'21          ', 230.0000,1,     0.000,     0.000,   1,   1,0.9733185,   2.64000,   1
   22,'22          ', 115.0000,1,     0.000,     0.000,   1,   1,0.9948282,  -0.96864,   1
   23,'23          ', 115.0000,1,     0.000,     0.000,   1,   1,1.0496887,   4.94278,   1
   24,'24          ', 230.0000,1,     0.000,     0.000,   1,   1,1.0048929,   7.03706,   1
   25,'25          ', 115.0000,1,     0.000,     0.000,   1,   1,1.0227938,   2.44310,   1
   26,'26          ', 115.0000,1,     0.000,     0.000,   1,   1,0.9977558,  -0.73227,   1
   27,'27          ', 115.0000,1,     0.000,     0.000,   1,   1,0.9738134,  -3.89851,   1
   33,'33          ', 115.0000,1,     0.000,     0.000,   1,   1,1.0233335, -11.66440,   1
   34,'34          ', 345.0000,1,     0.000,     0.000,   1,   1,1.0397534,  -7.56445,   1
   35,'35          ', 115.0000,1,     0.000,     0.000,   1,   1,0.9756193, -25.67268,   1
   36,'36          ', 230.0000,1,     0.000,     0.000,   1,   1,1.0009924, -22.53613,   1
   37,'37          ', 115.0000,1,     0.000,     0.000,   1,   1,1.0190457, -10.82315,   1
   38,'38          ', 115.0000,1,     0.000,     0.000,   1,   1,1.0191523, -12.21110,   1
   39,'39          ', 345.0000,1,     0.000,     0.000,   1,   1,1.0521506,  -5.43252,   1
   40,'40          ', 115.0000,1,     0.000,     0.000,   1,   1,1.0205134, -12.40483,   1
   41,'41          ', 115.0000,1,     0.000,     0.000,   1,   1,1.0279956, -10.07821,   1
   42,'42          ', 345.0000,1,     0.000,     0.000,   1,   1,1.0431967,  -7.06956,   1
   43,'43          ', 115.0000,1,     0.000,     0.000,   1,   1,1.0001302, -16.67345,   1
   44,'44          ', 115.0000,1,     0.000,     0.000,   1,   1,1.0086493, -17.49637,   1
   45,'45          ', 230.0000,1,     0.000,     0.000,   1,   1,1.0218989, -14.80586,   1
   46,'46          ', 345.0000,1,     0.000,     0.000,   1,   1,1.0331277, -11.57917,   1
   47,'47          ', 115.0000,1,     0.000,     0.000,   1,   1,0.9778777, -23.13450,   1
   48,'48          ', 115.0000,1,     0.000,     0.000,   1,   1,1.0013471, -15.73407,   1
   49,'49          ', 115.0000,1,     0.000,     0.000,   1,   1,1.0473007,  -2.48300,   1
   51,'51          ', 115.0000,1,     0.000,     0.000,   1,   1,1.0245246,  -7.86153,   1
   52,'52          ', 115.0000,1,     0.000,     0.000,   1,   1,0.9975593, -11.89346,   1
   53,'53          ', 115.0000,1,     0.000,     0.000,   1,   1,0.9956378, -17.55323,   1
   54,'54          ', 115.0000,1,     0.000,     0.000,   1,   1,1.0050975, -16.31517,   1
   55,'55          ', 115.0000,1,     0.000,     0.000,   1,   1,1.0153589, -12.47951,   1
   57,'57          ', 115.0000,1,     0.000,     0.000,   1,   1,1.0337924,  -9.08136,   1
   58,'58          ', 115.0000,1,     0.000,     0.000,   1,   1,0.9914727,  -7.42582,   1
   59,'59          ', 115.0000,1,     0.000,     0.000,   1,   1,0.9785934,  -6.83043,   1
   60,'60          ', 230.0000,1,     0.000,     0.000,   1,   1,1.0265808, -10.29523,   1
   61,'61          ', 115.0000,1,     0.000,     0.000,   1,   1,0.9905581,  -5.06267,   1
   62,'62          ', 230.0000,1,     0.000,     0.000,   1,   1,1.0168164,  -2.90443,   1
   63,'63          ', 115.0000,1,     0.000,     0.000,   1,   1,0.9582974, -19.26621,   1
   64,'64          ', 230.0000,1,     0.000,     0.000,   1,   1,0.9483918, -14.65379,   1
   69,'69          ', 115.0000,1,     0.000,     0.000,   1,   1,0.9629665, -25.59137,   1
   70,'70          ', 115.0000,1,     0.000,     0.000,   1,   1,0.9512603, -35.11557,   1
   71,'71          ', 115.0000,1,     0.000,     0.000,   1,   1,0.9793356, -29.83577,   1
   72,'72          ', 115.0000,1,     0.000,     0.000,   1,   1,0.9695521, -27.42849,   1
   73,'73          ', 115.0000,1,     0.000,     0.000,   1,   1,0.9775000, -25.72943,   1
   74,'74          ', 230.0000,1,     0.000,     0.000,   1,   1,0.9964765, -21.97352,   1
   76,'76          ', 115.0000,1,     0.000,     0.000,   1,   1,0.9631963, -26.49325,   1
   77,'77          ', 115.0000,1,     0.000,     0.000,   1,   1,0.9837348, -24.88992,   1
   78,'78          ', 115.0000,1,     0.000,     0.000,   1,   1,0.9899585, -23.99946,   1
   79,'79          ', 115.0000,1,     0.000,     0.000,   1,   1,0.9819587, -24.92344,   1
   80,'80          ', 115.0000,1,     0.000,     0.000,   1,   1,0.9871674, -24.91044,   1
   81,'81          ', 345.0000,1,     0.000,     0.000,   1,   1,1.0335486, -18.79850,   1
   84,'84          ', 115.0000,1,     0.000,     0.000,   1,   1,1.0249866, -17.11210,   1
   85,'85          ', 230.0000,1,     0.000,     0.000,   1,   1,0.9867223, -17.15609,   1
   86,'86          ', 230.0000,1,     0.000,     0.000,   1,   1,0.9901171, -13.59400,   1
   87,'87          ', 230.0000,1,     0.000,     0.000,   1,   1,0.9903948,  -7.00818,   1
   88,'88          ', 230.0000,1,     0.000,     0.000,   1,   1,1.0149503, -20.89754,   1
   89,'89          ', 115.0000,1,     0.000,     0.000,   1,   1,1.0308270, -10.57525,   1
   90,'90          ', 115.0000,1,     0.000,     0.000,   1,   1,1.0263284, -10.75744,   1
   91,'91          ', 115.0000,1,     0.000,     0.000,   1,   1,1.0519955,  -8.83151,   1
   92,'92          ', 115.0000,1,     0.000,     0.000,   1,   1,1.0519967,  -5.73288,   1
   94,'94          ', 115.0000,1,     0.000,     0.000,   1,   1,0.9918946,  -8.69900,   1
   97,'97          ', 115.0000,1,     0.000,     0.000,   1,   1,1.0180243, -12.67829,   1
   98,'98          ', 115.0000,1,     0.000,     0.000,   1,   1,1.0000010, -14.04613,   1
   99,'99          ', 115.0000,1,     0.000,     0.000,   1,   1,0.9893248, -19.79583,   1
  100,'100         ', 115.0000,1,     0.000,     0.000,   1,   1,1.0058216, -13.88395,   1
  102,'102         ', 115.0000,1,     0.000,     0.000,   1,   1,1.0004653, -14.66487,   1
  103,'103         ', 115.0000,1,     0.000,     0.000,   1,   1,1.0285668, -11.58068,   1
  104,'104         ', 115.0000,1,     0.000,     0.000,   1,   1,0.9955466, -16.79079,   1
  105,'105         ', 115.0000,1,     0.000,     0.000,   1,   1,1.0220536, -12.48663,   1
  107,'107         ', 115.0000,1,     0.000,     0.000,   1,   1,1.0091887, -15.61215,   1
  108,'108         ', 115.0000,1,     0.000,     0.000,   1,   1,0.9899977, -19.78426,   1
  109,'109         ', 115.0000,1,     0.000,     0.000,   1,   1,0.9748808, -25.74468,   1
  110,'110         ', 115.0000,1,     0.000,     0.000,   1,   1,0.9728594, -24.32942,   1
  112,'112         ', 115.0000,1,     0.000,     0.000,   1,   1,0.9725535, -28.40642,   1
  113,'113         ', 115.0000,1,     0.000,     0.000,   1,   1,0.9701379, -25.26276,   1
  114,'114         ', 115.0000,1,     0.000,     0.000,   1,   1,0.9747241, -28.31201,   1
  115,'115         ', 115.0000,1,     0.000,     0.000,   2,   2,0.9185228,  12.09870,   1
  116,'116         ', 115.0000,1,     0.000,     0.000,   2,   2,0.9803902,  19.44331,   1
  117,'117         ', 115.0000,1,     0.000,   325.000,   2,   2,0.9087032,  25.57756,   1
  118,'118         ', 115.0000,1,     0.000,     0.000,   2,   2,0.9036714,  26.72244,   1
  119,'119         ', 115.0000,1,     0.000,     0.000,   2,   2,1.0433670,  41.50408,   1
  120,'120         ', 115.0000,1,     0.000,    55.000,   2,   2,0.9980280,  38.24227,   1
  121,'121         ', 115.0000,1,     0.000,     0.000,   2,   2,0.8482375,  15.49436,   1
  122,'122         ', 115.0000,1,     0.000,     0.000,   2,   2,0.8962098,   9.74536,   1
  123,'123         ', 115.0000,1,     0.000,     0.000,   2,   2,0.9203385,   4.72773,   1
  124,'124         ', 115.0000,1,     0.000,     0.000,   2,   2,0.9632212,  16.12030,   1
  125,'125         ', 115.0000,1,     0.000,     0.000,   2,   2,0.9443885,  -5.74137,   1
  126,'126         ', 115.0000,1,     0.000,     0.000,   2,   2,0.9427500,  -1.03293,   1
  127,'127         ', 230.0000,1,     0.000,     0.000,   2,   2,0.9757178,  -6.65633,   1
  128,'128         ', 230.0000,1,     0.000,     0.000,   2,   2,0.9897168,  -4.62213,   1
  129,'129         ', 230.0000,1,     0.000,     0.000,   2,   2,0.9874800,  -3.76514,   1
  130,'130         ', 230.0000,1,     0.000,     0.000,   2,   2,1.0124348,   6.87549,   1
  131,'131         ', 230.0000,1,     0.000,     0.000,   2,   2,0.9822001,   7.21434,   1
  132,'132         ', 230.0000,1,     0.000,     0.000,   2,   2,0.9964902,   5.15338,   1
  133,'133         ', 230.0000,1,     0.000,     0.000,   2,   2,0.9910657,  -6.86279,   1
  134,'134         ', 230.0000,1,     0.000,     0.000,   2,   2,1.0107396,  -5.86191,   1
  135,'135         ', 230.0000,1,     0.000,     0.000,   2,   2,1.0131974,  -5.99980,   1
  136,'136         ', 230.0000,1,     0.000,     0.000,   2,   2,1.0459533,  -0.63799,   1
  137,'137         ', 230.0000,1,     0.000,     0.000,   2,   2,1.0425065,  -6.90251,   1
  138,'138         ', 230.0000,1,     0.000,     0.000,   2,   2,1.0514548, -16.35773,   1
  139,'139         ', 115.0000,1,     0.000,     0.000,   2,   2,1.0103444,  -8.80844,   1
  140,'140         ', 230.0000,1,     0.000,     0.000,   2,   2,1.0398356,  -8.68826,   1
  141,'141         ', 230.0000,1,     0.000,     0.000,   2,   2,1.0509931,  -4.98296,   1
  142,'142         ', 230.0000,1,     0.000,     0.000,   2,   2,1.0137014,  -7.01802,   1
  143,'143         ', 230.0000,1,     0.000,     0.000,   2,   2,1.0434873,   0.32746,   1
  144,'144         ', 230.0000,1,     0.000,     0.000,   2,   2,1.0166564,  -2.65017,   1
  145,'145         ', 230.0000,1,     0.000,     0.000,   2,   2,1.0075575,  -4.34312,   1
  146,'146         ', 230.0000,1,     0.000,     0.000,   2,   2,1.0523778,  -0.23208,   1
  147,'147         ', 230.0000,1,     0.000,     0.000,   2,   2,1.0528044,   3.72283,   1
  148,'148         ', 230.0000,1,     0.000,     0.000,   2,   2,1.0576382,  -3.51882,   1
  149,'149         ', 230.0000,1,     0.000,     0.000,   2,   2,1.0731622,   1.34951,   1
  150,'150         ', 230.0000,1,     0.000,     0.000,   2,   2,0.9827176,   7.49981,   1
  151,'151         ', 230.0000,1,     0.000,     0.000,   2,   2,0.9981125,   5.55506,   1
  152,'152         ', 230.0000,1,     0.000,     0.000,   2,   2,1.0535042,   6.68428,   1
  153,'153         ', 230.0000,1,     0.000,     0.000,   2,   2,1.0435015,   6.96342,   1
  154,'154         ', 115.0000,1,     0.000,    34.500,   2,   2,0.9652081,  -5.70530,   1
  155,'155         ', 230.0000,1,     0.000,     0.000,   2,   2,1.0143445,   2.48631,   1
  156,'156         ', 115.0000,1,     0.000,     0.000,   2,   2,0.9597326,   0.89860,   1
  157,'157         ', 230.0000,1,     0.000,     0.000,   2,   2,0.9117668,  11.48305,   1
  158,'158         ', 230.0000,1,     0.000,     0.000,   2,   2,0.9202593,  11.00842,   1
  159,'159         ', 230.0000,1,     0.000,     0.000,   2,   2,0.9006326,  15.82931,   1
  160,'160         ', 230.0000,1,     0.000,     0.000,   2,   2,0.9346954,  13.77826,   1
  161,'161         ', 230.0000,1,     0.000,     0.000,   2,   2,1.0347236,   5.09530,   1
  162,'162         ', 230.0000,1,     0.000,     0.000,   2,   2,0.9895450,  14.07134,   1
  163,'163         ', 230.0000,1,     0.000,     0.000,   2,   2,1.0357825,  -2.14433,   1
  164,'164         ', 230.0000,1,     0.000,  -212.000,   2,   2,0.9805045,   5.18584,   1
  165,'165         ', 230.0000,1,     0.000,     0.000,   2,   2,0.9989635,  21.90283,   1
  166,'166         ', 230.0000,1,     0.000,  -103.000,   2,   2,0.9965539,  25.82172,   1
  167,'167         ', 230.0000,1,     0.000,     0.000,   2,   2,0.9559351,  -6.34646,   1
  168,'168         ', 230.0000,1,     0.000,     0.000,   2,   2,0.9897403,  -4.64790,   1
  169,'169         ', 230.0000,1,     0.000,     0.000,   2,   2,0.9713410,  -6.21677,   1
  170,'170         ', 115.0000,1,     0.000,     0.000,   2,   2,0.9217154,   1.79689,   1
  171,'171         ', 115.0000,1,     0.000,     0.000,   2,   2,0.9716669, -11.43957,   1
  172,'172         ', 115.0000,1,     0.000,     0.000,   2,   2,1.0238577, -11.25672,   1
  173,'173         ', 115.0000,1,     0.000,    53.000,   2,   2,0.9823107, -17.42491,   1
  174,'174         ', 115.0000,1,     0.000,     0.000,   2,   2,1.0619600,  -7.68255,   1
  175,'175         ', 115.0000,1,     0.000,     0.000,   2,   2,0.9714580, -11.49625,   1
  176,'176         ', 115.0000,1,     0.000,     0.000,   2,   2,1.0521959,   0.38941,   1
  177,'177         ', 115.0000,1,     0.000,     0.000,   2,   2,1.0075326,  -3.58556,   1
  178,'178         ', 115.0000,1,     0.000,     0.000,   2,   2,0.9391529, -10.69354,   1
  179,'179         ', 115.0000,1,     0.000,    45.000,   2,   2,0.9687172, -13.46666,   1
  180,'180         ', 115.0000,1,     0.000,     0.000,   2,   2,0.9787242,  -7.25835,   1
  181,'181         ', 230.0000,1,     0.000,     0.000,   2,   2,1.0466261,  -7.42442,   1
  182,'182         ', 230.0000,1,     0.000,     0.000,   2,   2,1.0421237,  -9.44252,   1
  183,'183         ', 115.0000,1,     0.000,     0.000,   2,   2,0.9714383,   3.55577,   1
  184,'184         ', 230.0000,1,     0.000,     0.000,   2,   2,1.0341276,  -4.68587,   1
  185,'185         ', 230.0000,1,     0.000,     0.000,   2,   2,1.0521948,  -2.18575,   1
  186,'186         ', 230.0000,1,     0.000,     0.000,   2,   2,1.0649689,  -3.65743,   1
  187,'187         ', 230.0000,1,     0.000,     0.000,   2,   2,1.0649617,  -4.67875,   1
  188,'188         ', 230.0000,1,     0.000,     0.000,   2,   2,1.0490639,  -6.76467,   1
  189,'189         ',  66.0000,1,     0.000,     0.000,   3,   3,0.9975207, -25.74434,   1
  190,'190         ', 345.0000,1,     0.000,  -150.000,   3,   3,1.0551057, -20.54482,   1
  191,'191         ', 230.0000,1,     0.000,     0.000,   3,   3,1.0434318,  12.32695,   1
  192,'192         ', 230.0000,1,     0.000,     0.000,   3,   3,0.9373814, -11.10579,   1
  193,'192         ',  66.0000,1,     0.000,     0.000,   3,   3,0.9896262, -25.98587,   1
  194,'194         ', 345.0000,1,     0.000,     0.000,   3,   3,1.0486566, -19.13216,   1
  195,'195         ', 345.0000,1,     0.000,     0.000,   3,   3,1.0355688, -20.70942,   1
  196,'196         ', 115.0000,1,     0.000,     0.000,   3,   3,0.9694645, -25.23258,   1
  197,'197         ', 115.0000,1,     0.000,     0.000,   3,   3,0.9906631, -23.63534,   1
  198,'198         ', 115.0000,1,     0.000,     0.000,   3,   3,1.0149896, -20.50167,   1
  199,'199         ', 115.0000,1,     0.000,     0.000,   3,   3,0.9528335, -25.96102,   1
  200,'200         ', 115.0000,1,     0.000,     0.000,   3,   3,0.9550700, -25.85073,   1
  201,'201         ',  66.0000,1,     0.000,     0.000,   1,   1,0.9690929, -27.41049,   1
  202,'202         ',  66.0000,1,     0.000,     0.000,   3,   3,0.9908010, -25.25280,   1
  203,'203         ', 115.0000,1,     0.000,     0.000,   3,   3,1.0033031, -22.27052,   1
  204,'204         ',  66.0000,1,     0.000,     0.000,   3,   3,0.9717368, -25.60350,   1
  205,'205         ',  66.0000,1,     0.000,     0.000,   3,   3,0.9837559, -25.95872,   1
  206,'206         ',  66.0000,1,     0.000,     0.000,   3,   3,0.9993815, -27.21860,   1
  207,'207         ',  66.0000,1,     0.000,     0.000,   1,   1,1.0141174, -27.21422,   1
  208,'208         ',  66.0000,1,     0.000,     0.000,   3,   3,0.9928223, -26.16470,   1
  209,'209         ',  66.0000,1,     0.000,     0.000,   3,   3,0.9998990, -25.56031,   1
  210,'210         ', 115.0000,1,     0.000,     0.000,   3,   3,0.9788042, -24.13497,   1
  211,'211         ', 115.0000,1,     0.000,     0.000,   3,   3,1.0016021, -23.23614,   1
  212,'212         ', 138.0000,1,     0.000,     0.000,   3,   3,1.0131103, -22.42928,   1
  213,'213         ',  16.5000,1,     0.000,     0.000,   3,   3,1.0099953, -11.59755,   1
  214,'214         ', 138.0000,1,     0.000,     0.000,   3,   3,0.9918616, -17.45633,   1
  215,'215         ', 138.0000,1,     0.000,     0.000,   3,   3,0.9866197, -20.15703,   1
  216,'216         ', 138.0000,1,     0.000,     0.000,   3,   3,0.9751278, -22.45363,   1
  217,'217         ', 138.0000,1,     0.000,     0.000,   3,   3,1.0214930, -22.12385,   1
  218,'218         ', 138.0000,1,     0.000,     0.000,   3,   3,1.0075110, -22.55310,   1
...
0 / END OF BUS DATA, BEGIN LOAD DATA
    1,'1 ',1,   1,   1,    90.000,    49.000,     0.000,     0.000,     0.000,     0.000,   1
    2,'1 ',1,   1,   1,    56.000,    15.000,     0.000,     0.000,     0.000,     0.000,   1
    3,'1 ',1,   1,   1,    20.000,     0.000,     0.000,     0.000,     0.000,     0.000,   1
    5,'1 ',1,   1,   1,   353.000,   130.000,     0.000,     0.000,     0.000,     0.000,   1
    6,'1 ',1,   1,   1,   120.000,    41.000,     0.000,     0.000,     0.000,     0.000,   1
    8,'1 ',1,   1,   1,    58.000,    14.000,     0.000,     0.000,     0.000,     0.000,   1
    9,'1 ',1,   1,   1,    96.000,    43.000,     0.000,     0.000,     0.000,     0.000,   1
   10,'1 ',1,   1,   1,   148.000,    33.000,     0.000,     0.000,     0.000,     0.000,   1
   11,'1 ',1,   1,   1,    83.000,    21.000,     0.000,     0.000,     0.000,     0.000,   1
   13,'1 ',1,   1,   1,    58.000,    10.000,     0.000,     0.000,     0.000,     0.000,   1
   14,'1 ',1,   1,   1,   160.000,    60.000,     0.000,     0.000,     0.000,     0.000,   1
   15,'1 ',1,   1,   1,   126.700,    23.000,     0.000,     0.000,     0.000,     0.000,   1
   17,'1 ',1,   1,   1,   561.000,   220.000,     0.000,     0.000,     0.000,     0.000,   1
   20,'1 ',1,   1,   1,   595.000,   120.000,     0.000,     0.000,     0.000,     0.000,   1
   21,'1 ',1,   1,   1,    77.000,     1.000,     0.000,     0.000,     0.000,     0.000,   1
   22,'1 ',1,   1,   1,    81.000,    23.000,     0.000,     0.000,     0.000,     0.000,   1
   23,'1 ',1,   1,   1,    21.000,     7.000,     0.000,     0.000,     0.000,     0.000,   1
   25,'1 ',1,   1,   1,    45.000,    12.000,     0.000,     0.000,     0.000,     0.000,   1
   26,'1 ',1,   1,   1,    28.000,     9.000,     0.000,     0.000,     0.000,     0.000,   1
   27,'1 ',1,   1,   1,    69.000,    13.000,     0.000,     0.000,     0.000,     0.000,   1
   33,'1 ',1,   1,   1,    55.000,     6.000,     0.000,     0.000,     0.000,     0.000,   1
   37,'1 ',1,   1,   1,    85.000,    32.000,     0.000,     0.000,     0.000,     0.000,   1
   38,'1 ',1,   1,   1,   155.000,    18.000,     0.000,     0.000,     0.000,     0.000,   1
   40,'1 ',1,   1,   1,    46.000,   -21.000,     0.000,     0.000,     0.000,     0.000,   1
   41,'1 ',1,   1,   1,    86.000,     0.000,     0.000,     0.000,     0.000,     0.000,   1
   43,'1 ',1,   1,   1,    39.000,     9.000,     0.000,     0.000,     0.000,     0.000,   1
   44,'1 ',1,   1,   1,   195.000,    29.000,     0.000,     0.000,     0.000,     0.000,   1
   47,'1 ',1,   1,   1,    58.000,    11.800,     0.000,     0.000,     0.000,     0.000,   1
   48,'1 ',1,   1,   1,    41.000,    19.000,     0.000,     0.000,     0.000,     0.000,   1
   49,'1 ',1,   1,   1,    92.000,    26.000,     0.000,     0.000,     0.000,     0.000,   1
   51,'1 ',1,   1,   1,    -5.000,     5.000,     0.000,     0.000,     0.000,     0.000,   1
   52,'1 ',1,   1,   1,    61.000,    28.000,     0.000,     0.000,     0.000,     0.000,   1
   53,'1 ',1,   1,   1,    69.000,     3.000,     0.000,     0.000,     0.000,     0.000,   1
   54,'1 ',1,   1,   1,    10.000,     1.000,     0.000,     0.000,     0.000,     0.000,   1
   55,'1 ',1,   1,   1,    22.000,    10.000,     0.000,     0.000,     0.000,     0.000,   1
   57,'1 ',1,   1,   1,    98.000,    20.000,     0.000,     0.000,     0.000,     0.000,   1
   58,'1 ',1,   1,   1,    14.000,     1.000,     0.000,     0.000,     0.000,     0.000,   1
   59,'1 ',1,   1,   1,   218.000,   106.000,     0.000,     0.000,     0.000,     0.000,   1
   61,'1 ',1,   1,   1,   227.000,   110.000,     0.000,     0.000,     0.000,     0.000,   1
   63,'1 ',1,   1,   1,    70.000,    30.000,     0.000,     0.000,     0.000,     0.000,   1
   70,'1 ',1,   1,   1,    56.000,    20.000,     0.000,     0.000,     0.000,     0.000,   1
   71,'1 ',1,   1,   1,   116.000,    38.000,     0.000,     0.000,     0.000,     0.000,   1
   72,'1 ',1,   1,   1,    57.000,    19.000,     0.000,     0.000,     0.000,     0.000,   1
   73,'1 ',1,   1,   1,   224.000,    71.000,     0.000,     0.000,     0.000,     0.000,   1
   76,'1 ',1,   1,   1,   208.000,   107.000,     0.000,     0.000,     0.000,     0.000,   1
   77,'1 ',1,   1,   1,    74.000,    28.000,     0.000,     0.000,     0.000,     0.000,   1
   79,'1 ',1,   1,   1,    48.000,    14.000,     0.000,     0.000,     0.000,     0.000,   1
   80,'1 ',1,   1,   1,    28.000,     7.000,     0.000,     0.000,     0.000,     0.000,   1
   84,'1 ',1,   1,   1,    37.000,    13.000,     0.000,     0.000,     0.000,     0.000,   1
   89,'1 ',1,   1,   1,    44.200,     0.000,     0.000,     0.000,     0.000,     0.000,   1
   90,'1 ',1,   1,   1,    66.000,     0.000,     0.000,     0.000,     0.000,     0.000,   1
   91,'1 ',1,   1,   1,    17.400,     0.000,     0.000,     0.000,     0.000,     0.000,   1
   92,'1 ',1,   1,   1,    15.800,     0.000,     0.000,     0.000,     0.000,     0.000,   1
   94,'1 ',1,   1,   1,    60.300,     0.000,     0.000,     0.000,     0.000,     0.000,   1
   97,'1 ',1,   1,   1,    39.900,     0.000,     0.000,     0.000,     0.000,     0.000,   1
   98,'1 ',1,   1,   1,    66.700,     0.000,     0.000,     0.000,     0.000,     0.000,   1
   99,'1 ',1,   1,   1,    83.500,     0.000,     0.000,     0.000,     0.000,     0.000,   1
  102,'1 ',1,   1,   1,    77.800,     0.000,     0.000,     0.000,     0.000,     0.000,   1
  103,'1 ',1,   1,   1,    32.000,     0.000,     0.000,     0.000,     0.000,     0.000,   1
  104,'1 ',1,   1,   1,     8.600,     0.000,     0.000,     0.000,     0.000,     0.000,   1
  105,'1 ',1,   1,   1,    49.600,     0.000,     0.000,     0.000,     0.000,     0.000,   1
  107,'1 ',1,   1,   1,     4.600,     0.000,     0.000,     0.000,     0.000,     0.000,   1
  108,'1 ',1,   1,   1,   112.100,     0.000,     0.000,     0.000,     0.000,     0.000,   1
  109,'1 ',1,   1,   1,    30.700,     0.000,     0.000,     0.000,     0.000,     0.000,   1
  110,'1 ',1,   1,   1,    63.000,     0.000,     0.000,     0.000,     0.000,     0.000,   1
  112,'1 ',1,   1,   1,    19.600,     0.000,     0.000,     0.000,     0.000,     0.000,   1
  113,'1 ',1,   1,   1,    26.200,     0.000,     0.000,     0.000,     0.000,     0.000,   1
  114,'1 ',1,   1,   1,    18.200,     0.000,     0.000,     0.000,     0.000,     0.000,   1
  118,'1 ',1,   2,   2,    14.100,   650.000,     0.000,     0.000,     0.000,     0.000,   1
  119,'1 ',1,   2,   2,    100.3,    34.4000,     0.000,     0.000,     0.000,     0.000,   1
  121,'1 ',1,   2,   2,   535.000,    55.000,     0.000,     0.000,     0.000,     0.000,   1
  122,'1 ',1,   2,   2,   229.100,    11.800,     0.000,     0.000,     0.000,     0.000,   1
  123,'1 ',1,   2,   2,    78.000,     1.400,     0.000,     0.000,     0.000,     0.000,   1
  124,'1 ',1,   2,   2,   276.400,    59.300,     0.000,     0.000,     0.000,     0.000,   1
  125,'1 ',1,   2,   2,   514.800,    82.700,     0.000,     0.000,     0.000,     0.000,   1
  126,'1 ',1,   2,   2,    57.900,     5.100,     0.000,     0.000,     0.000,     0.000,   1
  127,'1 ',1,   2,   2,   380.800,    37.000,     0.000,     0.000,     0.000,     0.000,   1
  135,'1 ',1,   2,   2,   169.200,    41.600,     0.000,     0.000,     0.000,     0.000,   1
  136,'1 ',1,   2,   2,    55.200,    18.200,     0.000,     0.000,     0.000,     0.000,   1
  137,'1 ',1,   2,   2,   273.600,    99.800,     0.000,     0.000,     0.000,     0.000,   1
  138,'1 ',1,   2,   2,   826.700,   135.200,     0.000,     0.000,     0.000,     0.000,   1
  139,'1 ',1,   2,   2,   595.000,    83.300,     0.000,     0.000,     0.000,     0.000,   1
  140,'1 ',1,   2,   2,   387.700,   114.700,     0.000,     0.000,     0.000,     0.000,   1
  141,'1 ',1,   2,   2,   145.000,    58.000,     0.000,     0.000,     0.000,     0.000,   1
  142,'1 ',1,   2,   2,    56.500,    24.500,     0.000,     0.000,     0.000,     0.000,   1
  143,'1 ',1,   2,   2,    89.500,    35.500,     0.000,     0.000,     0.000,     0.000,   1
  145,'1 ',1,   2,   2,    24.000,    14.000,     0.000,     0.000,     0.000,     0.000,   1
  148,'1 ',1,   2,   2,    63.000,    25.000,     0.000,     0.000,     0.000,     0.000,   1
  152,'1 ',1,   2,   2,    17.000,     9.000,     0.000,     0.000,     0.000,     0.000,   1
  154,'1 ',1,   2,   2,    70.000,     5.000,     0.000,     0.000,     0.000,     0.000,   1
  155,'1 ',1,   2,   2,   200.000,    50.000,     0.000,     0.000,     0.000,     0.000,   1
  156,'1 ',1,   2,   2,    75.000,    50.000,     0.000,     0.000,     0.000,     0.000,   1
  157,'1 ',1,   2,   2,   123.500,    24.300,     0.000,     0.000,     0.000,     0.000,   1
  159,'1 ',1,   2,   2,    33.000,    16.500,     0.000,     0.000,     0.000,     0.000,   1
  161,'1 ',1,   2,   2,    35.000,    15.000,     0.000,     0.000,     0.000,     0.000,   1
  162,'1 ',1,   2,   2,    85.000,    24.000,     0.000,     0.000,     0.000,     0.000,   1
  163,'1 ',1,   2,   2,     0.000,     0.400,     0.000,     0.000,     0.000,     0.000,   1
  167,'1 ',1,   2,   2,   299.900,    95.700,     0.000,     0.000,     0.000,     0.000,   1
  170,'1 ',1,   2,   2,   481.800,   205.000,     0.000,     0.000,     0.000,     0.000,   1
  171,'1 ',1,   2,   2,   763.600,   291.100,     0.000,     0.000,     0.000,     0.000,   1
  172,'1 ',1,   2,   2,    26.500,     0.000,     0.000,     0.000,     0.000,     0.000,   1
  173,'1 ',1,   2,   2,   163.500,    43.000,     0.000,     0.000,     0.000,     0.000,   1
  175,'1 ',1,   2,   2,   176.000,    83.000,     0.000,     0.000,     0.000,     0.000,   1
  176,'1 ',1,   2,   2,     5.000,     4.000,     0.000,     0.000,     0.000,     0.000,   1
  177,'1 ',1,   2,   2,    28.000,    12.000,     0.000,     0.000,     0.000,     0.000,   1
  178,'1 ',1,   2,   2,   427.400,   173.600,     0.000,     0.000,     0.000,     0.000,   1
  179,'1 ',1,   2,   2,    74.000,    29.000,     0.000,     0.000,     0.000,     0.000,   1
  180,'1 ',1,   2,   2,    69.500,    49.300,     0.000,     0.000,     0.000,     0.000,   1
  181,'1 ',1,   2,   2,    73.400,     0.000,     0.000,     0.000,     0.000,     0.000,   1
  182,'1 ',1,   2,   2,   240.700,    89.000,     0.000,     0.000,     0.000,     0.000,   1
  183,'1 ',1,   2,   2,    40.000,     4.000,     0.000,     0.000,     0.000,     0.000,   1
  184,'1 ',1,   2,   2,   136.800,    16.600,     0.000,     0.000,     0.000,     0.000,   1
  186,'1 ',1,   2,   2,    59.800,    24.300,     0.000,     0.000,     0.000,     0.000,   1
  187,'1 ',1,   2,   2,    59.800,    24.300,     0.000,     0.000,     0.000,     0.000,   1
  188,'1 ',1,   2,   2,   182.600,    43.600,     0.000,     0.000,     0.000,     0.000,   1
  189,'1 ',1,   3,   3,     7.000,     2.000,     0.000,     0.000,     0.000,     0.000,   1
  191,'1 ',1,   3,   3,   489.000,    53.000,     0.000,     0.000,     0.000,     0.000,   1
  192,'1 ',1,   3,   3,   800.000,    72.000,     0.000,     0.000,     0.000,     0.000,   1
  196,'1 ',1,   3,   3,    10.000,     3.000,     0.000,     0.000,     0.000,     0.000,   1
  197,'1 ',1,   3,   3,    43.000,    14.000,     0.000,     0.000,     0.000,     0.000,   1
  198,'1 ',1,   3,   3,    64.000,    21.000,     0.000,     0.000,     0.000,     0.000,   1
  199,'1 ',1,   3,   3,    35.000,    12.000,     0.000,     0.000,     0.000,     0.000,   1
  200,'1 ',1,   3,   3,    27.000,    12.000,     0.000,     0.000,     0.000,     0.000,   1
  201,'1 ',1,   1,   1,    41.000,    14.000,     0.000,     0.000,     0.000,     0.000,   1
  202,'1 ',1,   3,   3,    38.000,    13.000,     0.000,     0.000,     0.000,     0.000,   1
  203,'1 ',1,   3,   3,    42.000,    14.000,     0.000,     0.000,     0.000,     0.000,   1
  204,'1 ',1,   3,   3,    72.000,    24.000,     0.000,     0.000,     0.000,     0.000,   1
  205,'1 ',1,   3,   3,     0.000,    -5.000,     0.000,     0.000,     0.000,     0.000,   1
  206,'1 ',1,   3,   3,    12.000,     2.000,     0.000,     0.000,     0.000,     0.000,   1
  207,'1 ',1,   1,   1,   -21.000,   -14.200,     0.000,     0.000,     0.000,     0.000,   1
  208,'1 ',1,   3,   3,     7.000,     2.000,     0.000,     0.000,     0.000,     0.000,   1
  209,'1 ',1,   3,   3,    38.000,    13.000,     0.000,     0.000,     0.000,     0.000,   1
  211,'1 ',1,   3,   3,    96.000,     7.000,     0.000,     0.000,     0.000,     0.000,   1
  214,'1 ',1,   3,   3,    22.000,    16.000,     0.000,     0.000,     0.000,     0.000,   1
  215,'1 ',1,   3,   3,    47.000,    26.000,     0.000,     0.000,     0.000,     0.000,   1
  216,'1 ',1,   3,   3,   176.000,   105.000,     0.000,     0.000,     0.000,     0.000,   1
  217,'1 ',1,   3,   3,   100.000,    75.000,     0.000,     0.000,     0.000,     0.000,   1
  218,'1 ',1,   3,   3,   131.000,    96.000,     0.000,     0.000,     0.000,     0.000,   1
  220,'1 ',1,   3,   3,   285.000,   100.000,     0.000,     0.000,     0.000,     0.000,   1
  221,'1 ',1,   3,   3,   171.000,    70.000,     0.000,     0.000,     0.000,     0.000,   1
  222,'1 ',1,   3,   3,   328.000,   188.000,     0.000,     0.000,     0.000,     0.000,   1
  223,'1 ',1,   3,   3,   428.000,   232.000,     0.000,     0.000,     0.000,     0.000,   1
  224,'1 ',1,   3,   3,   173.000,    99.000,     0.000,     0.000,     0.000,     0.000,   1
  225,'1 ',1,   3,   3,   410.000,    40.000,     0.000,     0.000,     0.000,     0.000,   1
  227,'1 ',1,   3,   3,   538.000,   369.000,     0.000,     0.000,     0.000,     0.000,   1
  228,'1 ',1,   3,   3,   223.000,   148.000,     0.000,     0.000,     0.000,     0.000,   1
  229,'1 ',1,   3,   3,    96.000,    46.000,     0.000,     0.000,     0.000,     0.000,   1
  231,'1 ',1,   3,   3,   159.000,   107.000,     0.000,     0.000,     0.000,     0.000,   1
  232,'1 ',1,   3,   3,   448.000,   143.000,     0.000,     0.000,     0.000,     0.000,   1
  233,'1 ',1,   3,   3,   404.000,   212.000,     0.000,     0.000,     0.000,     0.000,   1
  234,'1 ',1,   3,   3,   572.000,   244.000,     0.000,     0.000,     0.000,     0.000,   1
  235,'1 ',1,   3,   3,   269.000,   157.000,     0.000,     0.000,     0.000,     0.000,   1
  238,'1 ',1,   3,   3,   255.000,   149.000,     0.000,     0.000,     0.000,     0.000,   1
  243,'1 ',1,   3,   3,     8.000,     3.000,     0.000,     0.000,     0.000,     0.000,   1
  245,'1 ',1,   3,   3,    61.000,    30.000,     0.000,     0.000,     0.000,     0.000,   1
  246,'1 ',1,   3,   3,    77.000,    33.000,     0.000,     0.000,     0.000,     0.000,   1
  247,'1 ',1,   3,   3,    61.000,    30.000,     0.000,     0.000,     0.000,     0.000,   1
  248,'1 ',1,   3,   3,    29.000,    14.000,     0.000,     0.000,     0.000,     0.000,   1
  249,'1 ',1,   3,   3,    29.000,    14.000,     0.000,     0.000,     0.000,     0.000,   1
  250,'1 ',1,   3,   3,   -23.000,   -17.000,     0.000,     0.000,     0.000,     0.000,   1
  281,'1 ',1,   3,   3,   -33.100,   -29.400,     0.000,     0.000,     0.000,     0.000,   1
  319,'1 ',1,   1,   1,   115.800,   -24.000,     0.000,     0.000,     0.000,     0.000,   1
  320,'1 ',1,   1,   1,     2.400,   -12.600,     0.000,     0.000,     0.000,     0.000,   1
  322,'1 ',1,   1,   1,     2.400,    -3.900,     0.000,     0.000,     0.000,     0.000,   1
  323,'1 ',1,   1,   1,   -14.900,    26.500,     0.000,     0.000,     0.000,     0.000,   1
  324,'1 ',1,   1,   1,    24.700,    -1.200,     0.000,     0.000,     0.000,     0.000,   1
  526,'1 ',1,   1,   1,   145.300,   -34.900,     0.000,     0.000,     0.000,     0.000,   1
  528,'1 ',1,   1,   1,    28.100,   -20.500,     0.000,     0.000,     0.000,     0.000,   1
  531,'1 ',1,   1,   1,    14.000,     2.500,     0.000,     0.000,     0.000,     0.000,   1
  552,'1 ',1,   1,   1,   -11.100,    -1.400,     0.000,     0.000,     0.000,     0.000,   1
  562,'1 ',1,   1,   1,    50.500,    17.400,     0.000,     0.000,     0.000,     0.000,   1
  609,'1 ',1,   1,   1,    29.600,     0.600,     0.000,     0.000,     0.000,     0.000,   1
  664,'1 ',1,   3,   3,  -113.700,    76.700,     0.000,     0.000,     0.000,     0.000,   1
 1190,'1 ',1,   1,   1,   100.310,    29.170,     0.000,     0.000,     0.000,     0.000,   1
 1200,'1 ',1,   1,   1,  -100.000,    34.170,     0.000,     0.000,     0.000,     0.000,   1
 9003,'1 ',1,   1,   9,     2.710,     0.940,     0.000,     0.000,     0.000,     0.000,   1
 9004,'1 ',1,   1,   9,     0.860,     0.280,     0.000,     0.000,     0.000,     0.000,   1
 9021,'1 ',1,   1,   9,     4.750,     1.560,     0.000,     0.000,     0.000,     0.000,   1
 9022,'1 ',1,   1,   9,     1.530,     0.530,     0.000,     0.000,     0.000,     0.000,   1
 9024,'1 ',1,   1,   9,     1.350,     0.470,     0.000,     0.000,     0.000,     0.000,   1
 9025,'1 ',1,   1,   9,     0.450,     0.160,     0.000,     0.000,     0.000,     0.000,   1
 9026,'1 ',1,   1,   9,     0.450,     0.160,     0.000,     0.000,     0.000,     0.000,   1
 9031,'1 ',1,   1,   9,     1.840,     0.640,     0.000,     0.000,     0.000,     0.000,   1
 9032,'1 ',1,   1,   9,     1.390,     0.480,     0.000,     0.000,     0.000,     0.000,   1
 9033,'1 ',1,   1,   9,     1.890,     0.650,     0.000,     0.000,     0.000,     0.000,   1
 9034,'1 ',1,   1,   9,     1.550,     0.540,     0.000,     0.000,     0.000,     0.000,   1
 9035,'1 ',1,   1,   9,     1.660,     0.580,     0.000,     0.000,     0.000,     0.000,   1
 9036,'1 ',1,   1,   9,     3.030,     1.000,     0.000,     0.000,     0.000,     0.000,   1
 9037,'1 ',1,   1,   9,     1.860,     0.640,     0.000,     0.000,     0.000,     0.000,   1
 9038,'1 ',1,   1,   9,     2.580,     0.890,     0.000,     0.000,     0.000,     0.000,   1
 9041,'1 ',1,   1,   9,     1.010,     0.350,     0.000,     0.000,     0.000,     0.000,   1
 9042,'1 ',1,   1,   9,     0.810,     0.280,     0.000,     0.000,     0.000,     0.000,   1
 9043,'1 ',1,   1,   9,     1.600,     0.520,     0.000,     0.000,     0.000,     0.000,   1
 9052,'1 ',1,   1,   9,    30.000,    23.000,     0.000,     0.000,     0.000,     0.000,   1
 9071,'1 ',1,   1,   9,     1.020,     0.350,     0.000,     0.000,     0.000,     0.000,   1
 9072,'1 ',1,   1,   9,     1.020,     0.350,     0.000,     0.000,     0.000,     0.000,   1
 9121,'1 ',1,   1,   9,     3.800,     1.250,     0.000,     0.000,     0.000,     0.000,   1
 9533,'1 ',1,   1,   9,     1.190,     0.410,     0.000,     0.000,     0.000,     0.000,   1
0 / END OF LOAD DATA, BEGIN GENERATOR DATA
10000,'1 ',    -5.000,    10.000,    10.000,   -10.000,1.01530,    0,    25.000,   0.00140,   0.12000,   0.00000,   0.00000,1.00000,1,  100.0,  9999.000, -9999.000,   1,1.0000,   0,1.0000,   0,1.0000,   0,1.0000
10001,'1 ',    -5.000,    20.000,    20.000,   -20.000,1.02050,    0,    25.000,   0.00140,   0.12000,   0.00000,   0.00000,1.00000,1,  100.0,  9999.000, -9999.000,   1,1.0000,   0,1.0000,   0,1.0000,   0,1.0000
10002,'1 ',   -10.000,    20.000,    20.000,   -20.000,1.00100,    0,    25.000,   0.00140,   0.12000,   0.00000,   0.00000,1.00000,1,  100.0,  9999.000, -9999.000,   1,1.0000,   0,1.0000,   0,1.0000,   0,1.0000
10003,'1 ',     0.000,    24.477,    25.000,   -25.000,0.95830,    0,    25.000,   0.00140,   0.12000,   0.00000,   0.00000,1.00000,1,  100.0,  9999.000, -9999.000,   1,1.0000,   0,1.0000,   0,1.0000,   0,1.0000
10004,'1 ',     0.000,    34.997,    35.000,    12.000,0.96320,    0,    25.000,   0.00140,   0.12000,   0.00000,   0.00000,1.00000,1,  100.0,  9999.000, -9999.000,   1,1.0000,   0,1.0000,   0,1.0000,   0,1.0000
10005,'1 ',   375.000,   133.085,   240.000,  -240.000,1.02500,    0,   835.000,   0.00190,   0.33900,   0.00000,   0.00000,1.00000,1,  100.0,  9999.000, -9999.000,   1,1.0000,   0,1.0000,   0,1.0000,   0,1.0000
10006,'1 ',   155.000,    45.533,    96.000,   -11.000,1.05200,    0,   270.000,   0.00160,   0.18500,   0.00000,   0.00000,1.00000,1,  100.0,  9999.000, -9999.000,   1,1.0000,   0,1.0000,   0,1.0000,   0,1.0000
10007,'1 ',   290.000,    31.856,   153.000,  -153.000,1.05200,    0,   410.000,   0.00190,   0.22840,   0.00000,   0.00000,1.00000,1,  100.0,  9999.000, -9999.000,   1,1.0000,   0,1.0000,   0,1.0000,   0,1.0000
10008,'1 ',    68.000,   -10.241,    56.000,   -30.000,1.00000,    0,   125.000,   0.00400,   0.13400,   0.00000,   0.00000,1.00000,1,  100.0,  9999.000, -9999.000,   1,1.0000,   0,1.0000,   0,1.0000,   0,1.0000
10009,'1 ',   117.000,    21.603,    77.000,   -24.000,0.99000,    0,   270.000,   0.00160,   0.18500,   0.00000,   0.00000,1.00000,1,  100.0,  9999.000, -9999.000,   1,1.0000,   0,1.0000,   0,1.0000,   0,1.0000
10010,'1 ',  1930.000,  1367.716,  1500.000,  -500.000,1.04350,    0,   911.000,   0.00100,   0.19300,   0.00000,   0.00000,1.00000,1,  100.0,  9999.000, -9999.000,   1,1.0000,   0,1.0000,   0,1.0000,   0,1.0000
10011,'1 ',   240.000,   120.000,   120.000,   -60.000,1.02330,    0,   410.000,   0.00190,   0.22840,   0.00000,   0.00000,1.00000,1,  100.0,  9999.000, -9999.000,   1,1.0000,   0,1.0000,   0,1.0000,   0,1.0000
10012,'1 ',     0.000,   200.000,   200.000,   -25.000,1.01030,    0,    25.000,   0.00140,   0.12000,   0.00000,   0.00000,1.00000,1,  100.0,  9999.000, -9999.000,   1,1.0000,   0,1.0000,   0,1.0000,   0,1.0000
10013,'1 ',  -925.030,   350.000,   350.000,  -125.000,1.05500,    0,   911.000,   0.00100,   0.19300,   0.00000,   0.00000,1.00000,1,  100.0,  9999.000, -9999.000,   1,1.0000,   0,1.0000,   0,1.0000,   0,1.0000
10014,'1 ',   281.000,    70.060,    75.000,   -50.000,1.05100,    0,   410.000,   0.00190,   0.22840,   0.00000,   0.00000,1.00000,1,  100.0,  9999.000, -9999.000,   1,1.0000,   0,1.0000,   0,1.0000,   0,1.0000
10015,'1 ',   696.000,   124.859,   300.000,  -100.000,1.04350,    0,   911.000,   0.00100,   0.19300,   0.00000,   0.00000,1.00000,1,  100.0,  9999.000, -9999.000,   1,1.0000,   0,1.0000,   0,1.0000,   0,1.0000
10016,'1 ',    84.000,    35.000,    35.000,   -15.000,1.05280,    0,   125.000,   0.00400,   0.13400,   0.00000,   0.00000,1.00000,1,  100.0,  9999.000, -9999.000,   1,1.0000,   0,1.0000,   0,1.0000,   0,1.0000
10017,'1 ',   217.000,   -47.656,   100.000,   -50.000,1.05280,    0,   410.000,   0.00190,   0.22840,   0.00000,   0.00000,1.00000,1,  100.0,  9999.000, -9999.000,   1,1.0000,   0,1.0000,   0,1.0000,   0,1.0000
10018,'1 ',   103.000,    50.000,    50.000,   -25.000,1.07350,    0,   270.000,   0.00160,   0.18500,   0.00000,   0.00000,1.00000,1,  100.0,  9999.000, -9999.000,   1,1.0000,   0,1.0000,   0,1.0000,   0,1.0000
10019,'1 ',   372.000,   -48.209,   175.000,   -50.000,1.05350,    0,   835.000,   0.00190,   0.33900,   0.00000,   0.00000,1.00000,1,  100.0,  9999.000, -9999.000,   1,1.0000,   0,1.0000,   0,1.0000,   0,1.0000
10020,'1 ',   216.000,   -18.858,    90.000,   -50.000,1.04350,    0,   410.000,   0.00190,   0.22840,   0.00000,   0.00000,1.00000,1,  100.0,  9999.000, -9999.000,   1,1.0000,   0,1.0000,   0,1.0000,   0,1.0000
10021,'1 ',     0.000,    15.000,    15.000,   -10.000,0.96300,    0,    25.000,   0.00140,   0.12000,   0.00000,   0.00000,1.00000,1,  100.0,  9999.000, -9999.000,   1,1.0000,   0,1.0000,   0,1.0000,   0,1.0000
10022,'1 ',   205.000,    90.000,    90.000,   -40.000,0.92900,    0,   410.000,   0.00190,   0.22840,   0.00000,   0.00000,1.00000,1,  100.0,  9999.000, -9999.000,   1,1.0000,   0,1.0000,   0,1.0000,   0,1.0000
10023,'1 ',     0.000,   150.000,   150.000,   -50.000,0.98290,    0,    25.000,   0.00140,   0.12000,   0.00000,   0.00000,1.00000,1,  100.0,  9999.000, -9999.000,   1,1.0000,   0,1.0000,   0,1.0000,   0,1.0000
10024,'1 ',   228.000,    40.920,    90.000,   -45.000,1.05220,    0,   410.000,   0.00190,   0.22840,   0.00000,   0.00000,1.00000,1,  100.0,  9999.000, -9999.000,   1,1.0000,   0,1.0000,   0,1.0000,   0,1.0000
10025,'1 ',    84.000,    35.000,    35.000,   -15.000,1.00770,    0,   270.000,   0.00160,   0.18500,   0.00000,   0.00000,1.00000,1,  100.0,  9999.000, -9999.000,   1,1.0000,   0,1.0000,   0,1.0000,   0,1.0000
10026,'1 ',   200.000,    52.338,    80.000,   -50.000,1.05220,    0,   410.000,   0.00190,   0.22840,   0.00000,   0.00000,1.00000,1,  100.0,  9999.000, -9999.000,   1,1.0000,   0,1.0000,   0,1.0000,   0,1.0000
10027,'1 ',  1200.000,   319.059,   400.000,  -100.000,1.06500,    0,   911.000,   0.00100,   0.19300,   0.00000,   0.00000,1.00000,1,  100.0,  9999.000, -9999.000,   1,1.0000,   0,1.0000,   0,1.0000,   0,1.0000
10028,'1 ',  1200.000,   396.454,   400.000,  -100.000,1.06500,    0,   911.000,   0.00100,   0.19300,   0.00000,   0.00000,1.00000,1,  100.0,  9999.000, -9999.000,   1,1.0000,   0,1.0000,   0,1.0000,   0,1.0000
10029,'1 ',   475.000,   -65.221,   300.000,  -300.000,1.05510,    0,   835.000,   0.00190,   0.33900,   0.00000,   0.00000,1.00000,1,  100.0,  9999.000, -9999.000,   1,1.0000,   0,1.0000,   0,1.0000,   0,1.0000
10030,'1 ',  1973.000,   692.516,  1000.000, -1000.000,1.04350,    0,   911.000,   0.00100,   0.19300,   0.00000,   0.00000,1.00000,1,  100.0,  9999.000, -9999.000,   1,1.0000,   0,1.0000,   0,1.0000,   0,1.0000
10031,'1 ',   424.000,   101.156,   260.000,  -260.000,1.01500,    0,   835.000,   0.00190,   0.33900,   0.00000,   0.00000,1.00000,1,  100.0,  9999.000, -9999.000,   1,1.0000,   0,1.0000,   0,1.0000,   0,1.0000
10032,'1 ',   272.000,    44.081,   150.000,  -150.000,1.01000,    0,   512.000,   0.00400,   0.20000,   0.00000,   0.00000,1.00000,1,  100.0,  9999.000, -9999.000,   1,1.0000,   0,1.0000,   0,1.0000,   0,1.0000
10033,'1 ',   100.000,    36.225,    60.000,   -60.000,1.00800,    0,   270.000,   0.00160,   0.18500,   0.00000,   0.00000,1.00000,1,  100.0,  9999.000, -9999.000,   1,1.0000,   0,1.0000,   0,1.0000,   0,1.0000
10034,'1 ',   450.000,   160.371,   320.000,  -320.000,1.00000,    0,   835.000,   0.00190,   0.33900,   0.00000,   0.00000,1.00000,1,  100.0,  9999.000, -9999.000,   1,1.0000,   0,1.0000,   0,1.0000,   0,1.0000
10035,'1 ',   250.000,   161.439,   300.000,  -300.000,1.05000,    0,   410.000,   0.00190,   0.22840,   0.00000,   0.00000,1.00000,1,  100.0,  9999.000, -9999.000,   1,1.0000,   0,1.0000,   0,1.0000,   0,1.0000
10036,'1 ',   303.000,   262.982,   300.000,  -300.000,1.00000,    0,   512.000,   0.00400,   0.20000,   0.00000,   0.00000,1.00000,1,  100.0,  9999.000, -9999.000,   1,1.0000,   0,1.0000,   0,1.0000,   0,1.0000
10037,'1 ',   345.000,    42.591,   250.000,  -250.000,1.04000,    0,   835.000,   0.00190,   0.33900,   0.00000,   0.00000,1.00000,1,  100.0,  9999.000, -9999.000,   1,1.0000,   0,1.0000,   0,1.0000,   0,1.0000
10038,'1 ',   300.000,   132.573,   500.000,  -500.000,1.00000,    0,   512.000,   0.00400,   0.20000,   0.00000,   0.00000,1.00000,1,  100.0,  9999.000, -9999.000,   1,1.0000,   0,1.0000,   0,1.0000,   0,1.0000
10039,'1 ',   600.000,   300.000,   300.000,  -300.000,1.01650,    0,   911.000,   0.00100,   0.19300,   0.00000,   0.00000,1.00000,1,  100.0,  9999.000, -9999.000,   1,1.0000,   0,1.0000,   0,1.0000,   0,1.0000
10040,'1 ',   250.000,   163.840,   200.000,  -200.000,1.01000,    0,   410.000,   0.00190,   0.22840,   0.00000,   0.00000,1.00000,1,  100.0,  9999.000, -9999.000,   1,1.0000,   0,1.0000,   0,1.0000,   0,1.0000
10041,'1 ',   550.000,    68.470,   400.000,  -400.000,1.00000,    0,   911.000,   0.00100,   0.19300,   0.00000,   0.00000,1.00000,1,  100.0,  9999.000, -9999.000,   1,1.0000,   0,1.0000,   0,1.0000,   0,1.0000
10042,'1 ',   574.780,   -35.170,   600.000,  -600.000,1.05000,    0,   911.000,   0.00100,   0.19300,   0.00000,   0.00000,1.00000,1,  100.0,  9999.000, -9999.000,   1,1.0000,   0,1.0000,   0,1.0000,   0,1.0000
10043,'1 ',   170.000,    52.196,   100.000,    40.000,0.99300,    0,   410.000,   0.00190,   0.22840,   0.00000,   0.00000,1.00000,1,  100.0,  9999.000, -9999.000,   1,1.0000,   0,1.0000,   0,1.0000,   0,1.0000
10044,'1 ',    84.000,    52.326,    80.000,    40.000,1.01000,    0,   270.000,   0.00160,   0.18500,   0.00000,   0.00000,1.00000,1,  100.0,  9999.000, -9999.000,   1,1.0000,   0,1.0000,   0,1.0000,   0,1.0000
10045,'1 ',   467.000,   147.320,   210.000,  -210.000,1.05070,    0,   835.000,   0.00190,   0.33900,   0.00000,   0.00000,1.00000,1,  100.0,  9999.000, -9999.000,   1,1.0000,   0,1.0000,   0,1.0000,   0,1.0000
10046,'1 ',   623.000,   102.786,   280.000,  -280.000,1.05070,    0,   911.000,   0.00100,   0.19300,   0.00000,   0.00000,1.00000,1,  100.0,  9999.000, -9999.000,   1,1.0000,   0,1.0000,   0,1.0000,   0,1.0000
10047,'1 ',  1210.000,   420.000,   420.000,  -420.000,1.03230,    0,   911.000,   0.00100,   0.19300,   0.00000,   0.00000,1.00000,1,  100.0,  9999.000, -9999.000,   1,1.0000,   0,1.0000,   0,1.0000,   0,1.0000
10048,'1 ',   234.000,    56.524,   100.000,  -100.000,1.01450,    0,   410.000,   0.00190,   0.22840,   0.00000,   0.00000,1.00000,1,  100.0,  9999.000, -9999.000,   1,1.0000,   0,1.0000,   0,1.0000,   0,1.0000
10049,'1 ',   372.000,   207.793,   224.000,  -224.000,1.05070,    0,   835.000,   0.00190,   0.33900,   0.00000,   0.00000,1.00000,1,  100.0,  9999.000, -9999.000,   1,1.0000,   0,1.0000,   0,1.0000,   0,1.0000
10050,'1 ',   330.000,   350.000,   350.000,     0.000,1.05070,    0,   835.000,   0.00190,   0.33900,   0.00000,   0.00000,1.00000,1,  100.0,  9999.000, -9999.000,   1,1.0000,   0,1.0000,   0,1.0000,   0,1.0000
10051,'1 ',   185.000,     8.188,   120.000,     0.000,1.05070,    0,   410.000,   0.00190,   0.22840,   0.00000,   0.00000,1.00000,1,  100.0,  9999.000, -9999.000,   1,1.0000,   0,1.0000,   0,1.0000,   0,1.0000
10052,'1 ',   410.000,   109.379,   224.000,  -224.000,1.02900,    0,   835.000,   0.00190,   0.33900,   0.00000,   0.00000,1.00000,1,  100.0,  9999.000, -9999.000,   1,1.0000,   0,1.0000,   0,1.0000,   0,1.0000
10053,'1 ',   500.000,   158.389,   200.000,  -200.000,1.05000,    0,   835.000,   0.00190,   0.33900,   0.00000,   0.00000,1.00000,1,  100.0,  9999.000, -9999.000,   1,1.0000,   0,1.0000,   0,1.0000,   0,1.0000
10054,'1 ',    37.000,    41.611,    42.000,     0.000,1.01450,    0,   125.000,   0.00400,   0.13400,   0.00000,   0.00000,1.00000,1,  100.0,  9999.000, -9999.000,   1,1.0000,   0,1.0000,   0,1.0000,   0,1.0000
10055,'1 ',   462.248,    40.830,     0.000,     0.000,1.05070,    0,   835.000,   0.00190,   0.33900,   0.00000,   0.00000,1.00000,1,  100.0,  9999.000, -9999.000,   1,1.0000,   0,1.0000,   0,1.0000,   0,1.0000
10056,'1 ',    45.000,    24.897,    25.000,     0.000,0.99670,    0,   125.000,   0.00400,   0.13400,   0.00000,   0.00000,1.00000,1,  100.0,  9999.000, -9999.000,   1,1.0000,   0,1.0000,   0,1.0000,   0,1.0000
10057,'1 ',   165.000,    89.280,    90.000,   -90.000,1.02120,    0,   410.000,   0.00190,   0.22840,   0.00000,   0.00000,1.00000,1,  100.0,  9999.000, -9999.000,   1,1.0000,   0,1.0000,   0,1.0000,   0,1.0000
10058,'1 ',   400.000,   121.006,   150.000,  -150.000,1.01450,    0,   835.000,   0.00190,   0.33900,   0.00000,   0.00000,1.00000,1,  100.0,  9999.000, -9999.000,   1,1.0000,   0,1.0000,   0,1.0000,   0,1.0000
10059,'1 ',   400.000,   147.402,   150.000,     0.000,1.00170,    0,   835.000,   0.00190,   0.33900,   0.00000,   0.00000,1.00000,1,  100.0,  9999.000, -9999.000,   1,1.0000,   0,1.0000,   0,1.0000,   0,1.0000
10060,'1 ',   116.000,    87.000,    87.000,     0.000,0.98930,    0,   270.000,   0.00160,   0.18500,   0.00000,   0.00000,1.00000,1,  100.0,  9999.000, -9999.000,   1,1.0000,   0,1.0000,   0,1.0000,   0,1.0000
10061,'1 ',  1292.000,   361.844,   600.000,  -100.000,1.05070,    0,   911.000,   0.00100,   0.19300,   0.00000,   0.00000,1.00000,1,  100.0,  9999.000, -9999.000,   1,1.0000,   0,1.0000,   0,1.0000,   0,1.0000
10062,'1 ',   700.000,   292.424,   325.000,  -125.000,1.05070,    0,   911.000,   0.00100,   0.19300,   0.00000,   0.00000,1.00000,1,  100.0,  9999.000, -9999.000,   1,1.0000,   0,1.0000,   0,1.0000,   0,1.0000
10063,'1 ',   553.000,   141.487,   300.000,  -200.000,1.01450,    0,   911.000,   0.00100,   0.19300,   0.00000,   0.00000,1.00000,1,  100.0,  9999.000, -9999.000,   1,1.0000,   0,1.0000,   0,1.0000,   0,1.0000
10064,'1 ',    -4.200,     2.000,     2.000,    -2.000,0.99450,    0,    25.000,   0.00140,   0.12000,   0.00000,   0.00000,1.00000,1,  100.0,  9999.000, -9999.000,   1,1.0000,   0,1.0000,   0,1.0000,   0,1.0000
10065,'1 ',   -35.810,    15.442,    17.350,   -17.350,1.00000,    0,   125.000,   0.00400,   0.13400,   0.00000,   0.00000,1.00000,1,  100.0,  9999.000, -9999.000,   1,1.0000,   0,1.0000,   0,1.0000,   0,1.0000
10066,'1 ',   -26.480,    11.310,    12.830,   -12.800,1.00000,    0,   125.000,   0.00400,   0.13400,   0.00000,   0.00000,1.00000,1,  100.0,  9999.000, -9999.000,   1,1.0000,   0,1.0000,   0,1.0000,   0,1.0000
10067,'1 ',    50.000,    19.801,    38.000,   -38.000,1.00000,    0,   125.000,   0.00400,   0.13400,   0.00000,   0.00000,1.00000,1,  100.0,  9999.000, -9999.000,   1,1.0000,   0,1.0000,   0,1.0000,   0,1.0000
10068,'1 ',     8.000,     3.654,     6.000,    -6.000,1.00000,    0,    25.000,   0.00140,   0.12000,   0.00000,   0.00000,1.00000,1,  100.0,  9999.000, -9999.000,   1,1.0000,   0,1.0000,   0,1.0000,   0,1.0000
0 / END OF GENERATOR DATA, BEGIN BRANCH DATA
    1,     5,'1 ', 0.00100, 0.00600,0.00000,   0.00,   0.00,   0.00,  0.00000,  0.00000,  0.00000,  0.00000,1,   0.0,   1,1.0000,   0,1.0000,   0,1.0000,   0,1.0000
    2,     6,'1 ', 0.00100, 0.00900,0.00000,   0.00,   0.00,   0.00,  0.00000,  0.00000,  0.00000,  0.00000,1,   0.0,   1,1.0000,   0,1.0000,   0,1.0000,   0,1.0000
    2,     8,'1 ', 0.00600, 0.02700,0.05400,   0.00,   0.00,   0.00,  0.00000,  0.00000,  0.00000,  0.00000,1,   0.0,   1,1.0000,   0,1.0000,   0,1.0000,   0,1.0000
    3,     7,'1 ', 0.00000, 0.00300,0.00000,   0.00,   0.00,   0.00,  0.00000,  0.00000,  0.00000,  0.00000,1,   0.0,   1,1.0000,   0,1.0000,   0,1.0000,   0,1.0000
    3,    19,'1 ', 0.00800, 0.06900,0.13900,   0.00,   0.00,   0.00,  0.00000,  0.00000,  0.00000,  0.00000,1,   0.0,   1,1.0000,   0,1.0000,   0,1.0000,   0,1.0000
    3,   150,'1 ', 0.00100, 0.00700,0.00000,   0.00,   0.00,   0.00,  0.00000,  0.00000,  0.00000,  0.00000,1,   0.0,   1,1.0000,   0,1.0000,   0,1.0000,   0,1.0000
    4,    16,'1 ', 0.00200, 0.01900,1.12700,   0.00,   0.00,   0.00,  0.00000,  0.00000,  0.00000,  0.00000,1,   0.0,   1,1.0000,   0,1.0000,   0,1.0000,   0,1.0000
    5,     9,'1 ', 0.00600, 0.02900,0.01800,   0.00,   0.00,   0.00,  0.00000,  0.00000,  0.00000,  0.00000,1,   0.0,   1,1.0000,   0,1.0000,   0,1.0000,   0,1.0000
    7,    12,'1 ', 0.00100, 0.00900,0.07000,   0.00,   0.00,   0.00,  0.00000,  0.00000,  0.00000,  0.00000,1,   0.0,   1,1.0000,   0,1.0000,   0,1.0000,   0,1.0000
    7,   131,'1 ', 0.00100, 0.00700,0.01400,   0.00,   0.00,   0.00,  0.00000,  0.00000,  0.00000,  0.00000,1,   0.0,   1,1.0000,   0,1.0000,   0,1.0000,   0,1.0000
    8,    11,'1 ', 0.01300, 0.05950,0.03300,   0.00,   0.00,   0.00,  0.00000,  0.00000,  0.00000,  0.00000,1,   0.0,   1,1.0000,   0,1.0000,   0,1.0000,   0,1.0000
    8,    14,'1 ', 0.01300, 0.04200,0.08100,   0.00,   0.00,   0.00,  0.00000,  0.00000,  0.00000,  0.00000,1,   0.0,   1,1.0000,   0,1.0000,   0,1.0000,   0,1.0000
    9,    11,'1 ', 0.00600, 0.02700,0.01300,   0.00,   0.00,   0.00,  0.00000,  0.00000,  0.00000,  0.00000,1,   0.0,   1,1.0000,   0,1.0000,   0,1.0000,   0,1.0000
   11,    13,'1 ', 0.00800, 0.03400,0.01800,   0.00,   0.00,   0.00,  0.00000,  0.00000,  0.00000,  0.00000,1,   0.0,   1,1.0000,   0,1.0000,   0,1.0000,   0,1.0000
   12,    21,'1 ', 0.00200, 0.01500,0.11800,   0.00,   0.00,   0.00,  0.00000,  0.00000,  0.00000,  0.00000,1,   0.0,   1,1.0000,   0,1.0000,   0,1.0000,   0,1.0000
   13,    20,'1 ', 0.00600, 0.03400,0.01600,   0.00,   0.00,   0.00,  0.00000,  0.00000,  0.00000,  0.00000,1,   0.0,   1,1.0000,   0,1.0000,   0,1.0000,   0,1.0000
   14,    15,'1 ', 0.01400, 0.04200,0.09700,   0.00,   0.00,   0.00,  0.00000,  0.00000,  0.00000,  0.00000,1,   0.0,   1,1.0000,   0,1.0000,   0,1.0000,   0,1.0000
   15,    37,'1 ', 0.06500, 0.24800,0.12100,   0.00,   0.00,   0.00,  0.00000,  0.00000,  0.00000,  0.00000,1,   0.0,   1,1.0000,   0,1.0000,   0,1.0000,   0,1.0000
   15,    89,'1 ', 0.09900, 0.24800,0.03500,   0.00,   0.00,   0.00,  0.00000,  0.00000,  0.00000,  0.00000,1,   0.0,   1,1.0000,   0,1.0000,   0,1.0000,   0,1.0000
   15,    90,'1 ', 0.09600, 0.36300,0.04800,   0.00,   0.00,   0.00,  0.00000,  0.00000,  0.00000,  0.00000,1,   0.0,   1,1.0000,   0,1.0000,   0,1.0000,   0,1.0000
   16,    42,'1 ', 0.00200, 0.02200,1.28000,   0.00,   0.00,   0.00,  0.00000,  0.00000,  0.00000,  0.00000,1,   0.0,   1,1.0000,   0,1.0000,   0,1.0000,   0,1.0000
   19,    21,'1 ', 0.00200, 0.01800,0.03600,   0.00,   0.00,   0.00,  0.00000,  0.00000,  0.00000,  0.00000,1,   0.0,   1,1.0000,   0,1.0000,   0,1.0000,   0,1.0000
   19,    87,'1 ', 0.01300, 0.08000,0.15100,   0.00,   0.00,   0.00,  0.00000,  0.00000,  0.00000,  0.00000,1,   0.0,   1,1.0000,   0,1.0000,   0,1.0000,   0,1.0000
   20,    22,'1 ', 0.01600, 0.03300,0.01500,   0.00,   0.00,   0.00,  0.00000,  0.00000,  0.00000,  0.00000,1,   0.0,   1,1.0000,   0,1.0000,   0,1.0000,   0,1.0000
   20,    27,'1 ', 0.06900, 0.18600,0.09800,   0.00,   0.00,   0.00,  0.00000,  0.00000,  0.00000,  0.00000,1,   0.0,   1,1.0000,   0,1.0000,   0,1.0000,   0,1.0000
   21,    24,'1 ', 0.00400, 0.03400,0.28000,   0.00,   0.00,   0.00,  0.00000,  0.00000,  0.00000,  0.00000,1,   0.0,   1,1.0000,   0,1.0000,   0,1.0000,   0,1.0000
   22,    23,'1 ', 0.05200, 0.11100,0.05000,   0.00,   0.00,   0.00,  0.00000,  0.00000,  0.00000,  0.00000,1,   0.0,   1,1.0000,   0,1.0000,   0,1.0000,   0,1.0000
   23,    25,'1 ', 0.01900, 0.03900,0.01800,   0.00,   0.00,   0.00,  0.00000,  0.00000,  0.00000,  0.00000,1,   0.0,   1,1.0000,   0,1.0000,   0,1.0000,   0,1.0000
   24,   319,'1 ', 0.00700, 0.06800,0.13400,   0.00,   0.00,   0.00,  0.00000,  0.00000,  0.00000,  0.00000,1,   0.0,   1,1.0000,   0,1.0000,   0,1.0000,   0,1.0000
   25,    26,'1 ', 0.03600, 0.07100,0.03400,   0.00,   0.00,   0.00,  0.00000,  0.00000,  0.00000,  0.00000,1,   0.0,   1,1.0000,   0,1.0000,   0,1.0000,   0,1.0000
   26,    27,'1 ', 0.04500, 0.12000,0.06500,   0.00,   0.00,   0.00,  0.00000,  0.00000,  0.00000,  0.00000,1,   0.0,   1,1.0000,   0,1.0000,   0,1.0000,   0,1.0000
   26,   320,'1 ', 0.04300, 0.13000,0.01400,   0.00,   0.00,   0.00,  0.00000,  0.00000,  0.00000,  0.00000,1,   0.0,   1,1.0000,   0,1.0000,   0,1.0000,   0,1.0000
   33,    34,'1 ', 0.00000, 0.06300,0.00000,   0.00,   0.00,   0.00,  0.00000,  0.00000,  0.00000,  0.00000,1,   0.0,   1,1.0000,   0,1.0000,   0,1.0000,   0,1.0000
   33,    38,'1 ', 0.00250, 0.01200,0.01300,   0.00,   0.00,   0.00,  0.00000,  0.00000,  0.00000,  0.00000,1,   0.0,   1,1.0000,   0,1.0000,   0,1.0000,   0,1.0000
   33,    40,'1 ', 0.00600, 0.02900,0.02000,   0.00,   0.00,   0.00,  0.00000,  0.00000,  0.00000,  0.00000,1,   0.0,   1,1.0000,   0,1.0000,   0,1.0000,   0,1.0000
   33,    41,'1 ', 0.00700, 0.04300,0.02600,   0.00,   0.00,   0.00,  0.00000,  0.00000,  0.00000,  0.00000,1,   0.0,   1,1.0000,   0,1.0000,   0,1.0000,   0,1.0000
   34,    42,'1 ', 0.00100, 0.00800,0.04200,   0.00,   0.00,   0.00,  0.00000,  0.00000,  0.00000,  0.00000,1,   0.0,   1,1.0000,   0,1.0000,   0,1.0000,   0,1.0000
   35,    72,'1 ', 0.01200, 0.06000,0.00800,   0.00,   0.00,   0.00,  0.00000,  0.00000,  0.00000,  0.00000,1,   0.0,   1,1.0000,   0,1.0000,   0,1.0000,   0,1.0000
   35,    76,'1 ', 0.00600, 0.01400,0.00200,   0.00,   0.00,   0.00,  0.00000,  0.00000,  0.00000,  0.00000,1,   0.0,   1,1.0000,   0,1.0000,   0,1.0000,   0,1.0000
   35,    77,'1 ', 0.01000, 0.02900,0.00300,   0.00,   0.00,   0.00,  0.00000,  0.00000,  0.00000,  0.00000,1,   0.0,   1,1.0000,   0,1.0000,   0,1.0000,   0,1.0000
   36,    88,'1 ', 0.00400, 0.02700,0.04300,   0.00,   0.00,   0.00,  0.00000,  0.00000,  0.00000,  0.00000,1,   0.0,   1,1.0000,   0,1.0000,   0,1.0000,   0,1.0000
   37,    38,'1 ', 0.00800, 0.04700,0.00800,   0.00,   0.00,   0.00,  0.00000,  0.00000,  0.00000,  0.00000,1,   0.0,   1,1.0000,   0,1.0000,   0,1.0000,   0,1.0000
   37,    40,'1 ', 0.02200, 0.06400,0.00700,   0.00,   0.00,   0.00,  0.00000,  0.00000,  0.00000,  0.00000,1,   0.0,   1,1.0000,   0,1.0000,   0,1.0000,   0,1.0000
   37,    41,'1 ', 0.01000, 0.03600,0.02000,   0.00,   0.00,   0.00,  0.00000,  0.00000,  0.00000,  0.00000,1,   0.0,   1,1.0000,   0,1.0000,   0,1.0000,   0,1.0000
   37,    49,'1 ', 0.01700, 0.08100,0.04800,   0.00,   0.00,   0.00,  0.00000,  0.00000,  0.00000,  0.00000,1,   0.0,   1,1.0000,   0,1.0000,   0,1.0000,   0,1.0000
   37,    89,'1 ', 0.10200, 0.25400,0.03300,   0.00,   0.00,   0.00,  0.00000,  0.00000,  0.00000,  0.00000,1,   0.0,   1,1.0000,   0,1.0000,   0,1.0000,   0,1.0000
   37,    90,'1 ', 0.04700, 0.12700,0.01600,   0.00,   0.00,   0.00,  0.00000,  0.00000,  0.00000,  0.00000,1,   0.0,   1,1.0000,   0,1.0000,   0,1.0000,   0,1.0000
   38,    41,'1 ', 0.00800, 0.03700,0.02000,   0.00,   0.00,   0.00,  0.00000,  0.00000,  0.00000,  0.00000,1,   0.0,   1,1.0000,   0,1.0000,   0,1.0000,   0,1.0000
   38,    43,'1 ', 0.03200, 0.08700,0.04000,   0.00,   0.00,   0.00,  0.00000,  0.00000,  0.00000,  0.00000,1,   0.0,   1,1.0000,   0,1.0000,   0,1.0000,   0,1.0000
   39,    42,'1 ', 0.00060, 0.00640,0.40400,   0.00,   0.00,   0.00,  0.00000,  0.00000,  0.00000,  0.00000,1,   0.0,   1,1.0000,   0,1.0000,   0,1.0000,   0,1.0000
   40,    48,'1 ', 0.02600, 0.15400,0.02200,   0.00,   0.00,   0.00,  0.00000,  0.00000,  0.00000,  0.00000,1,   0.0,   1,1.0000,   0,1.0000,   0,1.0000,   0,1.0000
...